
$ ---General---
$ Generated by ParaPy-Nastran interface
$ Date: 2023-06-19 05:54:23
$ Project: 
$ Some custom text

$ ---Executive control---
$ Custom statements
$ ---Case control---

SOL 101
CEND
TITLE = WINGBOX
ECHO = NONE
SUBCASE 1
    LOAD = 1
    SPC = 1
    DISP = ALL
    DISPLACEMENT(SORT1,REAL)=ALL
    SPCFORCES(SORT1,REAL)=ALL
    STRESS(SORT1,REAL,VONMISES,BILIN)=ALL
SUBCASE 2
    LOAD = 2
    SPC = 2
    DISP = ALL
    DISPLACEMENT(SORT1,REAL)=ALL
    SPCFORCES(SORT1,REAL)=ALL
    STRESS(SORT1,REAL,VONMISES,BILIN)=ALL
SUBCASE 3
    LOAD = 3
    SPC = 3
    DISP = ALL
    DISPLACEMENT(SORT1,REAL)=ALL
    SPCFORCES(SORT1,REAL)=ALL
    STRESS(SORT1,REAL,VONMISES,BILIN)=ALL



BEGIN BULK

GRID    1               12.2635 15.     1.062228
GRID    2               6.34758 3.428572.3645141
GRID    3               5.9820762.285715.336349
GRID    4               5.6165721.142858.3081797
GRID    5               6.6005371.142857.057578
GRID    6               6.9000082.285714.1290937
GRID    7               7.1994793.428571.2004196
GRID    8               7.44494 6.857137.5196683
GRID    9               7.07909 5.714279.4632062
GRID    10              6.7132494.571425.4067894
GRID    11              7.4991564.571429.2722167
GRID    12              7.7990385.714286.3446585
GRID    13              8.09892 6.857143.4171031
GRID    14              6.6005371.142857-.193693
GRID    15              5.6165711.142856-.32652
GRID    16              6.9000082.285714-.065833
GRID    17              5.9820762.285713-.171891
GRID    18              7.1994793.428571.0622491
GRID    19              6.34758 3.428571-.017252
GRID    20              8.3937068.999993.6523321
$ ... 18552 like lines cut

CTRIA3  1       1       54      4       473
CTRIA3  2       1       54      55      4064
CTRIA3  3       1       55      54      4065
CTRIA3  4       1       56      55      4066
CTRIA3  5       1       55      4065    4066
CTRIA3  6       1       56      57      4067
CTRIA3  7       1       57      56      4068
CTRIA3  8       1       56      4066    4068
CTRIA3  9       1       58      57      4069
CTRIA3  10      1       57      4068    4069
CTRIA3  11      1       58      59      4070
CTRIA3  12      1       59      58      4071
CTRIA3  13      1       58      4069    4071
CTRIA3  14      1       60      59      4072
CTRIA3  15      1       59      4071    4072
CTRIA3  16      1       60      61      4073
CTRIA3  17      1       61      60      4074
CTRIA3  18      1       60      4072    4074
CTRIA3  19      1       62      61      4075
CTRIA3  20      1       61      4074    4075
$ ... 38703 like lines cut

PSHELL  1       1       .05     1               1

MAT1    1       7.239+10        .33     2699.967

SPC1    1       123     209
SPC1    1       123     208
SPC1    1       123     207
SPC1    1       123     206
SPC1    1       123     205
SPC1    1       123     202
SPC1    1       123     197
SPC1    1       123     196
SPC1    1       123     204
SPC1    1       123     203
SPC1    1       123     201
SPC1    1       123     200
SPC1    1       123     174
SPC1    1       123     173
SPC1    1       123     182
SPC1    1       123     181
SPC1    1       123     199
SPC1    1       123     198
SPC1    1       235     198
SPC1    1       235     199
$ ... 46 like lines cut

FORCE   1       1495            242.16351.      0.0     0.0
FORCE   1       1489            202.78181.      0.0     0.0
FORCE   1       1495            5267.0550.0     0.0     1.
FORCE   1       3792            1958.24 0.0     0.0     1.
FORCE   1       3533            6269.5870.0     0.0     1.
FORCE   1       2148            9174.5560.0     0.0     1.
FORCE   1       2373            264.80661.      0.0     0.0
FORCE   1       2983            52.416621.      0.0     0.0
FORCE   1       386             -1.737571.      0.0     0.0
FORCE   1       3533            -34.59881.      0.0     0.0
FORCE   1       3214            324.18251.      0.0     0.0
FORCE   1       3104            241.66161.      0.0     0.0
FORCE   1       386             7695.72 0.0     0.0     1.
FORCE   1       3685            -65.60361.      0.0     0.0
FORCE   1       3792            -62.83741.      0.0     0.0
FORCE   1       3584            -48.27751.      0.0     0.0
FORCE   1       2939            10586.870.0     0.0     1.
FORCE   1       3685            2891.8970.0     0.0     1.
FORCE   1       3584            4769.1230.0     0.0     1.
FORCE   1       3214            11782.990.0     0.0     1.
$ ... 100 like lines cut

Moment  1       3584            -1057.190.0     1.      0.0
Moment  1       3726            -10.20940.0     1.      0.0
Moment  1       2373            -3204.  0.0     1.      0.0
Moment  1       3731            16.786450.0     1.      0.0
Moment  1       339             11.977270.0     1.      0.0
Moment  1       2203            -4708.210.0     1.      0.0
Moment  1       198             -395.7490.0     1.      0.0
Moment  1       3792            -213.5030.0     1.      0.0
Moment  1       3533            -1874.210.0     1.      0.0
Moment  1       386             -2994.750.0     1.      0.0
Moment  1       1485            -1087.640.0     1.      0.0
Moment  1       2148            -6540.280.0     1.      0.0
Moment  1       3104            -7903.180.0     1.      0.0
Moment  1       2983            -4475.7 0.0     1.      0.0
Moment  1       3214            -8901.510.0     1.      0.0
Moment  1       1495            -2222.520.0     1.      0.0
Moment  1       3802            -83.56690.0     1.      0.0
Moment  1       2939            -6405.060.0     1.      0.0
Moment  1       3685            -449.2830.0     1.      0.0
Moment  1       1489            -1626.310.0     1.      0.0
$ ... 40 like lines cut

ENDDATA
