
$ ---General---
$ Generated by ParaPy-Nastran interface
$ Date: 2023-06-19 09:33:04
$ Project: 
$ Some custom text

$ ---Executive control---
$ Custom statements
$ ---Case control---

SOL 101
CEND
TITLE = WINGBOX
ECHO = NONE
SUBCASE 1
    LOAD = 1
    SPC = 1
    DISP = ALL
    DISPLACEMENT(SORT1,REAL)=ALL
    SPCFORCES(SORT1,REAL)=ALL
    STRESS(SORT1,REAL,VONMISES,BILIN)=ALL
SUBCASE 2
    LOAD = 2
    SPC = 2
    DISP = ALL
    DISPLACEMENT(SORT1,REAL)=ALL
    SPCFORCES(SORT1,REAL)=ALL
    STRESS(SORT1,REAL,VONMISES,BILIN)=ALL
SUBCASE 3
    LOAD = 3
    SPC = 3
    DISP = ALL
    DISPLACEMENT(SORT1,REAL)=ALL
    SPCFORCES(SORT1,REAL)=ALL
    STRESS(SORT1,REAL,VONMISES,BILIN)=ALL



BEGIN BULK

GRID    1               6.7864245.714286.5756637
GRID    2               6.4020294.571429.5386164
GRID    3               6.0176343.428571.5016407
GRID    4               7.4450326.857105.5633245
GRID    5               5.9822662.285658.3741224
GRID    6               5.6166531.142825.3270378
GRID    7               6.6007431.142857.0603913
GRID    8               6.9004192.285714.1348562
GRID    9               6.3480963.428571.4206184
GRID    10              7.2000963.428571.2092997
GRID    11              6.7137724.571429.4678107
GRID    12              7.4997724.571429.2837172
GRID    13              7.0794495.714286.5152268
GRID    14              7.7994495.714286.358102
GRID    15              8.0991266.857143.4324449
GRID    16              10.1424111.99997.8876877
GRID    17              9.55946710.99996.8183874
GRID    18              8.9765559.999961.7491872
GRID    19              8.3936698.999976.6800575
GRID    20              8.92292 9.      .589364
$ ... 20476 like lines cut

CTRIA3  1       1       70      6       612
CTRIA3  2       1       70      71      4015
CTRIA3  3       1       71      70      4016
CTRIA3  4       1       72      71      4017
CTRIA3  5       1       71      4016    4017
CTRIA3  6       1       72      73      4018
CTRIA3  7       1       73      72      4019
CTRIA3  8       1       72      4017    4019
CTRIA3  9       1       74      73      4020
CTRIA3  10      1       73      4019    4020
CTRIA3  11      1       74      75      4021
CTRIA3  12      1       75      74      4022
CTRIA3  13      1       74      4020    4022
CTRIA3  14      1       76      75      4023
CTRIA3  15      1       75      4022    4023
CTRIA3  16      1       76      77      4024
CTRIA3  17      1       77      76      4025
CTRIA3  18      1       76      4023    4025
CTRIA3  19      1       78      77      4026
CTRIA3  20      1       77      4025    4026
$ ... 42381 like lines cut

PSHELL  1       1       .05     1               1

MAT1    1       7.239+10        .33     2699.967

SPC1    1       25      265
SPC1    1       25      273
SPC1    1       123     333
SPC1    1       123     332
SPC1    1       123     331
SPC1    1       123     330
SPC1    1       123     329
SPC1    1       123     326
SPC1    1       123     321
SPC1    1       123     320
SPC1    1       123     328
SPC1    1       123     327
SPC1    1       123     325
SPC1    1       123     324
SPC1    1       123     265
SPC1    1       123     264
SPC1    1       123     274
SPC1    1       123     273
SPC1    1       123     323
SPC1    1       123     322
$ ... 46 like lines cut

FORCE   1       63              7925.4250.0     0.0     1.
FORCE   1       63              17.380321.      0.0     0.0
FORCE   1       239             -31.71971.      0.0     0.0
FORCE   1       3938            -67.39391.      0.0     0.0
FORCE   1       239             6443.4320.0     0.0     1.
FORCE   1       3465            -12.464 1.      0.0     0.0
FORCE   1       3938            1924.7230.0     0.0     1.
FORCE   1       3665            2903.05 0.0     0.0     1.
FORCE   1       3948            1145.9170.0     0.0     1.
FORCE   1       3460            573.43710.0     0.0     1.
FORCE   1       3637            -54.02481.      0.0     0.0
FORCE   1       3637            4858.7810.0     0.0     1.
FORCE   1       3665            -73.22461.      0.0     0.0
FORCE   1       3948            -48.69341.      0.0     0.0
FORCE   1       402             -2.753391.      0.0     0.0
FORCE   1       3465            206.48140.0     0.0     1.
FORCE   1       402             24.007630.0     0.0     1.
FORCE   1       3460            -28.28491.      0.0     0.0
FORCE   1       1959            257.37221.      0.0     0.0
FORCE   1       2351            215.98221.      0.0     0.0
$ ... 100 like lines cut

Moment  1       3938            -188.1840.0     1.      0.0
Moment  1       63              -2491.120.0     1.      0.0
Moment  1       2351            -1043.740.0     1.      0.0
Moment  1       239             -1623.430.0     1.      0.0
Moment  1       390             -1028.640.0     1.      0.0
Moment  1       3637            -969.1690.0     1.      0.0
Moment  1       3665            -419.5040.0     1.      0.0
Moment  1       2873            -1302.540.0     1.      0.0
Moment  1       1959            -1056.160.0     1.      0.0
Moment  1       3465            8.3849790.0     1.      0.0
Moment  1       3948            -63.354 0.0     1.      0.0
Moment  1       2909            -3131.860.0     1.      0.0
Moment  1       3460            -1.700080.0     1.      0.0
Moment  1       2884            -1789.8 0.0     1.      0.0
Moment  1       322             -329.6190.0     1.      0.0
Moment  1       2896            -2453.860.0     1.      0.0
Moment  1       402             1.1553270.0     1.      0.0
Moment  1       1782            -3706.420.0     1.      0.0
Moment  1       2779            -3551.480.0     1.      0.0
Moment  1       2347            -844.04 0.0     1.      0.0
$ ... 40 like lines cut

ENDDATA
