
$ ---General---
$ Generated by ParaPy-Nastran interface
$ Date: 2023-06-17 22:53:35
$ Project: 
$ Some custom text

$ ---Executive control---
$ Custom statements
$ ---Case control---

SOL 101

CEND

ECHO=BOTH

DISP=ALL

SPCF=ALL

LOAD=1

TITLE=EXAMPLE 1

SUBTITLE=CONTILEVER BEAM

LABEL=DISTRIBUTED LOAD AND END MOMENT

BEGIN BULK

GRID    1               6.581066-7.06-18-.169397
GRID    2               7.7717484.8     .1698613
GRID    3               7.7717484.8     .2598695
GRID    4               6.581066-4.17-18-.075029
GRID    5               8.5668028.      .4067491
GRID    6               8.5668028.      .4743557
GRID    7               10.1990711.2    .7558371
GRID    8               10.1990711.2    .7041182
GRID    9               11.1173913.     .8694012
GRID    10              11.1173913.     .9124235
GRID    11              13.7060416.     1.289202
GRID    12              13.7060416.     1.264264
GRID    13              6.604999.0964828-.068297
GRID    14              6.62779 .1883568-.061887
GRID    15              6.650734.2808546-.055434
GRID    16              6.673989.3746012-.048893
GRID    17              6.69616 .463979 -.042657
GRID    18              6.719256.557085 -.036161
GRID    19              6.743092.6531737-.029456
GRID    20              6.765986.7454667-.023017
$ ... 18900 like lines cut

PLOAD2  1       1000.   1       2

CTRIA3  1       1       168     1239    1240
CTRIA3  2       1       170     169     1241

PSHELL  1       1       .05     1               1

MAT1    1       7.239+10        .33     2699.967

SPC1    2       123456  270     309

ENDDATA
