
$ ---General---
$ Generated by ParaPy-Nastran interface
$ Date: 2023-06-18 18:47:07
$ Project: 
$ Some custom text

$ ---Executive control---
$ Custom statements
$ ---Case control---

SOL 101
CEND
TITLE = WINGBOX
ECHO = NONE
DISP = ALL
LOAD = 1
SPCFORCES(SORT1,REAL)=ALL
STRESS(SORT1,REAL,VONMISES,BILIN)=ALL


BEGIN BULK

GRID    1               7.4091216.857141.5486005
GRID    2               7.0494495.714286.4907998
GRID    3               6.6897644.571425.4330746
GRID    4               6.3300883.428568.3753213
GRID    5               5.9704132.285712.317573
GRID    6               5.6107391.142856.2598286
GRID    7               5.2510668.635-18.2020873
GRID    8               6.6007431.142857.0642447
GRID    9               6.9004192.285714.137315
GRID    10              7.2000963.428571.2103899
GRID    11              7.4997724.571429.2834703
GRID    12              7.7994495.714286.3565574
GRID    13              8.0991266.857143.4296531
GRID    14              10.0752712.     .9313572
GRID    15              9.49865611.     .8501106
GRID    16              8.9220389.999999.7688652
GRID    17              8.34542 9.      .6876209
GRID    18              8.92292 9.      .5903721
GRID    19              9.44703910.     .677984
GRID    20              9.97115711.     .7655954
$ ... 519 like lines cut

CTRIA3  1       1       7       6       60
CTRIA3  2       1       8       6       5
CTRIA3  3       1       9       5       4
CTRIA3  4       1       10      4       3
CTRIA3  5       1       11      3       2
CTRIA3  6       1       12      2       1
CTRIA3  7       1       13      1       61
CTRIA3  8       1       2       12      11
CTRIA3  9       1       4       10      9
CTRIA3  10      1       3       11      10
CTRIA3  11      1       1       13      12
CTRIA3  12      1       61      62      13
CTRIA3  13      1       6       8       60
CTRIA3  14      1       5       9       8
CTRIA3  15      1       266     64      60
CTRIA3  16      1       267     266     8
CTRIA3  17      1       268     267     9
CTRIA3  18      1       269     268     10
CTRIA3  19      1       270     269     11
CTRIA3  20      1       271     270     12
$ ... 1212 like lines cut

PSHELL  1       1       .05     1               1

MAT1    1       7.239+10        .33     2699.967

FORCE   1       439             2371.94 0.0     0.0     1.
FORCE   1       398             762.24680.0     0.0     1.
FORCE   1       236             10954.070.0     0.0     1.
FORCE   1       361             5451.0610.0     0.0     1.
FORCE   1       398             -39.94741.      0.0     0.0
FORCE   1       421             -65.60691.      0.0     0.0
FORCE   1       361             -34.35091.      0.0     0.0
FORCE   1       421             3440.0820.0     0.0     1.
FORCE   1       51              403.09991.      0.0     0.0
FORCE   1       439             -74.24  1.      0.0     0.0
FORCE   1       396             -61.11471.      0.0     0.0
FORCE   1       51              7169.64 0.0     0.0     1.
FORCE   1       396             1470.1690.0     0.0     1.
FORCE   1       424             6780.9360.0     0.0     1.
FORCE   1       397             -18.12771.      0.0     0.0
FORCE   1       236             278.69621.      0.0     0.0
FORCE   1       448             10556.710.0     0.0     1.
FORCE   1       397             273.60150.0     0.0     1.
FORCE   1       517             8797.5770.0     0.0     1.
FORCE   1       516             337.83561.      0.0     0.0
$ ... 100 like lines cut

Moment  1       211             -4824.570.0     1.      0.0
Moment  1       51              -7975.550.0     1.      0.0
Moment  1       361             -1863.460.0     1.      0.0
Moment  1       421             -942.5940.0     1.      0.0
Moment  1       516             -6499.6 0.0     1.      0.0
Moment  1       207             -3946.730.0     1.      0.0
Moment  1       46              -1515.170.0     1.      0.0
Moment  1       245             -8226.720.0     1.      0.0
Moment  1       396             -183.2270.0     1.      0.0
Moment  1       439             -462.4430.0     1.      0.0
Moment  1       262             -3106.910.0     1.      0.0
Moment  1       517             -8709.740.0     1.      0.0
Moment  1       254             -8753.810.0     1.      0.0
Moment  1       236             -7254.190.0     1.      0.0
Moment  1       398             -32.228 0.0     1.      0.0
Moment  1       397             16.116940.0     1.      0.0
Moment  1       448             -6032.970.0     1.      0.0
Moment  1       424             -2459.720.0     1.      0.0
Moment  1       159             4.2655830.0     1.      0.0
Moment  1       46              -4290.070.0     1.      0.0
$ ... 40 like lines cut

SPC1    1       123456  46      342
SPC1    2       123456  46      342
SPC1    3       123456  46      342

ENDDATA
