
$ ---General---
$ Generated by ParaPy-Nastran interface
$ Date: 2023-06-18 09:28:16
$ Project: 
$ Some custom text

$ ---Executive control---
$ Custom statements
$ ---Case control---

SOL 101

CEND

ECHO=BOTH

DISP=ALL

SPCF=ALL

LOAD=1

TITLE=EXAMPLE 1

SUBTITLE=CONTILEVER BEAM

LABEL=DISTRIBUTED LOAD AND END MOMENT

BEGIN BULK

GRID    1               6.581066-7.06-18-.169397
GRID    2               8.5668028.      .4001847
GRID    3               8.5668028.      .4708294
GRID    4               6.581066-4.17-18-.075029
GRID    5               11.1173913.     .879645
GRID    6               11.1173913.     .920839
GRID    7               13.7060416.     1.264264
GRID    8               13.7060416.     1.289202
GRID    9               6.602554.0865705-.069123
GRID    10              6.624519.175062 -.063085
GRID    11              6.644677.256273 -.057544
GRID    12              6.666568.3444633-.051527
GRID    13              6.687227.4276948-.045849
GRID    14              6.709101.515817 -.039836
GRID    15              6.730121.6005012-.034058
GRID    16              6.752374.6901549-.027942
GRID    17              6.772871.7727328-.022307
GRID    18              6.794774.8609714-.016287
GRID    19              6.81482 .9417331-.010777
GRID    20              6.8375251.033203-4.536-3
$ ... 19759 like lines cut

PLOAD2  1       1000.   1       2

CTRIA3  1       1       164     163     1083
CTRIA3  2       1       163     1082    1083

PSHELL  1       1       .05     1               1

MAT1    1       7.239+10        .33     2699.967

SPC1    2       123456  327     368

ENDDATA
